** Profile: "SCHEMATIC1-tran1"  [ C:\Users\arvba41\OneDrive - Linköpings universitet\Courses\Simulation Course\ODE_Extra_task\battery_task\SPICE\battery_4_state-PSpiceFiles\Voltage_input\battery_all_states_vbatt_inpuit-PSpiceFiles\SCHEMATIC1\tran1.sim ] 

** Creating circuit file "tran1.cir" 
** WARNING: THIS AUTOMATICALLY GENERATED FILE MAY BE OVERWRITTEN BY SUBSEQUENT SIMULATIONS

*Libraries: 
* Profile Libraries :
* Local Libraries :
* From [PSPICE NETLIST] section of C:\Users\arvba41\AppData\Roaming\SPB_Data\cdssetup\OrCAD_PSpice\17.4.0\PSpice.ini file:
.lib "nom.lib" 

*Analysis directives: 
.TRAN  0 3600 0 50 
.OPTIONS ADVCONV
.PROBE64 V(alias(*)) I(alias(*)) W(alias(*)) D(alias(*)) NOISE(alias(*)) 
.INC "..\SCHEMATIC1.net" 


.END
